<routes>
        <vType id="typeW" accel="0.8" decel="4.5" sigma="0.5" length="5" minGap="2.5" maxSpeed="16.67" guiShape="passenger"/>
        <vType id="typeE" accel="0.8" decel="4.5" sigma="0.5" length="5" minGap="2.5" maxSpeed="16.67" guiShape="bus"/>
        <vType id="typeN" accel="0.8" decel="4.5" sigma="0.5" length="7.5" minGap="3" maxSpeed="25" guiShape="motorcycle"/>
        <vType id="typeS" accel="0.8" decel="4.5" sigma="0.5" length="7.5" minGap="3" maxSpeed="25" guiShape="delivery"/>

        <route id="W2E" edges="E0 E3" />
        <route id="N2S" edges="-E3 E1" />
        
    <vehicle id="E_0" type="typeE" route="W2E" depart="0" />
    <vehicle id="E_1" type="typeE" route="W2E" depart="2" />
    <vehicle id="W_2" type="typeW" route="W2E" depart="3" />
    <vehicle id="S_3" type="typeS" route="N2S" depart="4" />
    <vehicle id="E_4" type="typeE" route="W2E" depart="10" />
    <vehicle id="W_5" type="typeW" route="W2E" depart="11" />
    <vehicle id="W_6" type="typeW" route="W2E" depart="22" />
    <vehicle id="E_7" type="typeE" route="W2E" depart="22" />
    <vehicle id="W_8" type="typeW" route="W2E" depart="25" />
    <vehicle id="W_9" type="typeW" route="W2E" depart="31" />
    <vehicle id="N_10" type="typeN" route="N2S" depart="31" />
    <vehicle id="W_11" type="typeW" route="W2E" depart="34" />
    <vehicle id="W_12" type="typeW" route="W2E" depart="40" />
    <vehicle id="E_13" type="typeE" route="W2E" depart="41" />
    <vehicle id="W_14" type="typeW" route="W2E" depart="44" />
    <vehicle id="E_15" type="typeE" route="W2E" depart="49" />
    <vehicle id="W_16" type="typeW" route="W2E" depart="56" />
    <vehicle id="W_17" type="typeW" route="W2E" depart="63" />
    <vehicle id="W_18" type="typeW" route="W2E" depart="64" />
    <vehicle id="E_19" type="typeE" route="W2E" depart="67" />
    <vehicle id="N_20" type="typeN" route="N2S" depart="72" />
    <vehicle id="E_21" type="typeE" route="W2E" depart="74" />
    <vehicle id="W_22" type="typeW" route="W2E" depart="81" />
    <vehicle id="N_23" type="typeN" route="N2S" depart="85" />
    <vehicle id="W_24" type="typeW" route="W2E" depart="92" />
    <vehicle id="N_25" type="typeN" route="N2S" depart="98" />
    <vehicle id="S_26" type="typeS" route="N2S" depart="103" />
    <vehicle id="S_27" type="typeS" route="N2S" depart="106" />
    <vehicle id="W_28" type="typeW" route="W2E" depart="115" />
    <vehicle id="E_29" type="typeE" route="W2E" depart="117" />
    <vehicle id="E_30" type="typeE" route="W2E" depart="120" />
    <vehicle id="E_31" type="typeE" route="W2E" depart="123" />
    <vehicle id="E_32" type="typeE" route="W2E" depart="125" />
    <vehicle id="W_33" type="typeW" route="W2E" depart="126" />
    <vehicle id="W_34" type="typeW" route="W2E" depart="127" />
    <vehicle id="E_35" type="typeE" route="W2E" depart="129" />
    <vehicle id="N_36" type="typeN" route="N2S" depart="129" />
    <vehicle id="W_37" type="typeW" route="W2E" depart="132" />
    <vehicle id="S_38" type="typeS" route="N2S" depart="135" />
    <vehicle id="E_39" type="typeE" route="W2E" depart="137" />
    <vehicle id="E_40" type="typeE" route="W2E" depart="147" />
    <vehicle id="N_41" type="typeN" route="N2S" depart="149" />
    <vehicle id="W_42" type="typeW" route="W2E" depart="150" />
    <vehicle id="W_43" type="typeW" route="W2E" depart="152" />
    <vehicle id="E_44" type="typeE" route="W2E" depart="159" />
    <vehicle id="W_45" type="typeW" route="W2E" depart="164" />
    <vehicle id="W_46" type="typeW" route="W2E" depart="171" />
    <vehicle id="W_47" type="typeW" route="W2E" depart="179" />
    <vehicle id="W_48" type="typeW" route="W2E" depart="180" />
    <vehicle id="W_49" type="typeW" route="W2E" depart="182" />
    <vehicle id="E_50" type="typeE" route="W2E" depart="204" />
    <vehicle id="W_51" type="typeW" route="W2E" depart="213" />
    <vehicle id="W_52" type="typeW" route="W2E" depart="216" />
    <vehicle id="E_53" type="typeE" route="W2E" depart="218" />
    <vehicle id="N_54" type="typeN" route="N2S" depart="220" />
    <vehicle id="W_55" type="typeW" route="W2E" depart="227" />
    <vehicle id="E_56" type="typeE" route="W2E" depart="232" />
    <vehicle id="W_57" type="typeW" route="W2E" depart="239" />
    <vehicle id="N_58" type="typeN" route="N2S" depart="241" />
    <vehicle id="W_59" type="typeW" route="W2E" depart="245" />
    <vehicle id="W_60" type="typeW" route="W2E" depart="250" />
    <vehicle id="E_61" type="typeE" route="W2E" depart="253" />
    <vehicle id="N_62" type="typeN" route="N2S" depart="256" />
    <vehicle id="E_63" type="typeE" route="W2E" depart="258" />
    <vehicle id="N_64" type="typeN" route="N2S" depart="258" />
    <vehicle id="E_65" type="typeE" route="W2E" depart="262" />
    <vehicle id="E_66" type="typeE" route="W2E" depart="265" />
    <vehicle id="W_67" type="typeW" route="W2E" depart="266" />
    <vehicle id="E_68" type="typeE" route="W2E" depart="281" />
    <vehicle id="E_69" type="typeE" route="W2E" depart="283" />
    <vehicle id="W_70" type="typeW" route="W2E" depart="287" />
    <vehicle id="E_71" type="typeE" route="W2E" depart="287" />
    <vehicle id="E_72" type="typeE" route="W2E" depart="291" />
    <vehicle id="W_73" type="typeW" route="W2E" depart="292" />
    <vehicle id="N_74" type="typeN" route="N2S" depart="293" />
    <vehicle id="W_75" type="typeW" route="W2E" depart="296" />
    <vehicle id="E_76" type="typeE" route="W2E" depart="296" />
    <vehicle id="E_77" type="typeE" route="W2E" depart="298" />
    <vehicle id="W_78" type="typeW" route="W2E" depart="309" />
    <vehicle id="W_79" type="typeW" route="W2E" depart="310" />
    <vehicle id="W_80" type="typeW" route="W2E" depart="311" />
    <vehicle id="E_81" type="typeE" route="W2E" depart="315" />
    <vehicle id="W_82" type="typeW" route="W2E" depart="320" />
    <vehicle id="W_83" type="typeW" route="W2E" depart="329" />
    <vehicle id="E_84" type="typeE" route="W2E" depart="343" />
    <vehicle id="S_85" type="typeS" route="N2S" depart="344" />
    <vehicle id="S_86" type="typeS" route="N2S" depart="347" />
    <vehicle id="W_87" type="typeW" route="W2E" depart="348" />
    <vehicle id="E_88" type="typeE" route="W2E" depart="350" />
    <vehicle id="W_89" type="typeW" route="W2E" depart="352" />
    <vehicle id="E_90" type="typeE" route="W2E" depart="354" />
    <vehicle id="E_91" type="typeE" route="W2E" depart="357" />
    <vehicle id="E_92" type="typeE" route="W2E" depart="359" />
    <vehicle id="W_93" type="typeW" route="W2E" depart="363" />
    <vehicle id="E_94" type="typeE" route="W2E" depart="369" />
    <vehicle id="E_95" type="typeE" route="W2E" depart="372" />
    <vehicle id="W_96" type="typeW" route="W2E" depart="374" />
    <vehicle id="E_97" type="typeE" route="W2E" depart="376" />
    <vehicle id="W_98" type="typeW" route="W2E" depart="389" />
    <vehicle id="E_99" type="typeE" route="W2E" depart="392" />
    <vehicle id="W_100" type="typeW" route="W2E" depart="402" />
    <vehicle id="E_101" type="typeE" route="W2E" depart="402" />
    <vehicle id="W_102" type="typeW" route="W2E" depart="406" />
    <vehicle id="E_103" type="typeE" route="W2E" depart="406" />
    <vehicle id="E_104" type="typeE" route="W2E" depart="414" />
    <vehicle id="E_105" type="typeE" route="W2E" depart="430" />
    <vehicle id="N_106" type="typeN" route="N2S" depart="434" />
    <vehicle id="S_107" type="typeS" route="N2S" depart="451" />
    <vehicle id="W_108" type="typeW" route="W2E" depart="459" />
    <vehicle id="N_109" type="typeN" route="N2S" depart="468" />
    <vehicle id="E_110" type="typeE" route="W2E" depart="469" />
    <vehicle id="W_111" type="typeW" route="W2E" depart="477" />
    <vehicle id="W_112" type="typeW" route="W2E" depart="481" />
    <vehicle id="W_113" type="typeW" route="W2E" depart="483" />
    <vehicle id="E_114" type="typeE" route="W2E" depart="484" />
    <vehicle id="E_115" type="typeE" route="W2E" depart="490" />
    <vehicle id="N_116" type="typeN" route="N2S" depart="490" />
    <vehicle id="N_117" type="typeN" route="N2S" depart="494" />
    <vehicle id="E_118" type="typeE" route="W2E" depart="495" />
    <vehicle id="W_119" type="typeW" route="W2E" depart="496" />
    <vehicle id="W_120" type="typeW" route="W2E" depart="501" />
    <vehicle id="N_121" type="typeN" route="N2S" depart="512" />
    <vehicle id="W_122" type="typeW" route="W2E" depart="517" />
    <vehicle id="W_123" type="typeW" route="W2E" depart="528" />
    <vehicle id="W_124" type="typeW" route="W2E" depart="530" />
    <vehicle id="N_125" type="typeN" route="N2S" depart="530" />
    <vehicle id="N_126" type="typeN" route="N2S" depart="531" />
    <vehicle id="W_127" type="typeW" route="W2E" depart="533" />
    <vehicle id="W_128" type="typeW" route="W2E" depart="538" />
    <vehicle id="E_129" type="typeE" route="W2E" depart="538" />
    <vehicle id="W_130" type="typeW" route="W2E" depart="540" />
    <vehicle id="W_131" type="typeW" route="W2E" depart="542" />
    <vehicle id="W_132" type="typeW" route="W2E" depart="543" />
    <vehicle id="W_133" type="typeW" route="W2E" depart="545" />
    <vehicle id="E_134" type="typeE" route="W2E" depart="548" />
    <vehicle id="E_135" type="typeE" route="W2E" depart="550" />
    <vehicle id="E_136" type="typeE" route="W2E" depart="555" />
    <vehicle id="N_137" type="typeN" route="N2S" depart="557" />
    <vehicle id="W_138" type="typeW" route="W2E" depart="558" />
    <vehicle id="W_139" type="typeW" route="W2E" depart="562" />
    <vehicle id="W_140" type="typeW" route="W2E" depart="563" />
    <vehicle id="E_141" type="typeE" route="W2E" depart="576" />
    <vehicle id="N_142" type="typeN" route="N2S" depart="582" />
    <vehicle id="N_143" type="typeN" route="N2S" depart="585" />
    <vehicle id="W_144" type="typeW" route="W2E" depart="596" />
    <vehicle id="W_145" type="typeW" route="W2E" depart="601" />
    <vehicle id="W_146" type="typeW" route="W2E" depart="606" />
    <vehicle id="N_147" type="typeN" route="N2S" depart="606" />
    <vehicle id="W_148" type="typeW" route="W2E" depart="609" />
    <vehicle id="E_149" type="typeE" route="W2E" depart="609" />
    <vehicle id="E_150" type="typeE" route="W2E" depart="613" />
    <vehicle id="W_151" type="typeW" route="W2E" depart="629" />
    <vehicle id="W_152" type="typeW" route="W2E" depart="634" />
    <vehicle id="S_153" type="typeS" route="N2S" depart="635" />
    <vehicle id="S_154" type="typeS" route="N2S" depart="640" />
    <vehicle id="W_155" type="typeW" route="W2E" depart="642" />
    <vehicle id="S_156" type="typeS" route="N2S" depart="646" />
    <vehicle id="W_157" type="typeW" route="W2E" depart="649" />
    <vehicle id="E_158" type="typeE" route="W2E" depart="651" />
    <vehicle id="E_159" type="typeE" route="W2E" depart="659" />
    <vehicle id="W_160" type="typeW" route="W2E" depart="660" />
    <vehicle id="E_161" type="typeE" route="W2E" depart="660" />
    <vehicle id="W_162" type="typeW" route="W2E" depart="662" />
    <vehicle id="E_163" type="typeE" route="W2E" depart="665" />
    <vehicle id="E_164" type="typeE" route="W2E" depart="666" />
    <vehicle id="E_165" type="typeE" route="W2E" depart="673" />
    <vehicle id="E_166" type="typeE" route="W2E" depart="676" />
    <vehicle id="E_167" type="typeE" route="W2E" depart="680" />
    <vehicle id="E_168" type="typeE" route="W2E" depart="682" />
    <vehicle id="S_169" type="typeS" route="N2S" depart="683" />
    <vehicle id="W_170" type="typeW" route="W2E" depart="687" />
    <vehicle id="S_171" type="typeS" route="N2S" depart="688" />
    <vehicle id="E_172" type="typeE" route="W2E" depart="693" />
    <vehicle id="E_173" type="typeE" route="W2E" depart="694" />
    <vehicle id="E_174" type="typeE" route="W2E" depart="697" />
    <vehicle id="E_175" type="typeE" route="W2E" depart="704" />
    <vehicle id="E_176" type="typeE" route="W2E" depart="706" />
    <vehicle id="W_177" type="typeW" route="W2E" depart="709" />
    <vehicle id="E_178" type="typeE" route="W2E" depart="709" />
    <vehicle id="W_179" type="typeW" route="W2E" depart="711" />
    <vehicle id="N_180" type="typeN" route="N2S" depart="712" />
    <vehicle id="E_181" type="typeE" route="W2E" depart="714" />
    <vehicle id="E_182" type="typeE" route="W2E" depart="721" />
    <vehicle id="W_183" type="typeW" route="W2E" depart="724" />
    <vehicle id="E_184" type="typeE" route="W2E" depart="727" />
    <vehicle id="W_185" type="typeW" route="W2E" depart="730" />
    <vehicle id="W_186" type="typeW" route="W2E" depart="731" />
    <vehicle id="W_187" type="typeW" route="W2E" depart="733" />
    <vehicle id="W_188" type="typeW" route="W2E" depart="745" />
    <vehicle id="N_189" type="typeN" route="N2S" depart="747" />
    <vehicle id="W_190" type="typeW" route="W2E" depart="751" />
    <vehicle id="E_191" type="typeE" route="W2E" depart="752" />
    <vehicle id="E_192" type="typeE" route="W2E" depart="758" />
    <vehicle id="S_193" type="typeS" route="N2S" depart="760" />
    <vehicle id="W_194" type="typeW" route="W2E" depart="763" />
    <vehicle id="E_195" type="typeE" route="W2E" depart="766" />
    <vehicle id="E_196" type="typeE" route="W2E" depart="782" />
    <vehicle id="E_197" type="typeE" route="W2E" depart="785" />
    <vehicle id="N_198" type="typeN" route="N2S" depart="792" />
    <vehicle id="W_199" type="typeW" route="W2E" depart="801" />
    <vehicle id="S_200" type="typeS" route="N2S" depart="801" />
    <vehicle id="S_201" type="typeS" route="N2S" depart="802" />
    <vehicle id="W_202" type="typeW" route="W2E" depart="814" />
    <vehicle id="W_203" type="typeW" route="W2E" depart="823" />
    <vehicle id="E_204" type="typeE" route="W2E" depart="828" />
    <vehicle id="W_205" type="typeW" route="W2E" depart="830" />
    <vehicle id="E_206" type="typeE" route="W2E" depart="832" />
    <vehicle id="E_207" type="typeE" route="W2E" depart="841" />
    <vehicle id="E_208" type="typeE" route="W2E" depart="842" />
    <vehicle id="E_209" type="typeE" route="W2E" depart="843" />
    <vehicle id="E_210" type="typeE" route="W2E" depart="850" />
    <vehicle id="N_211" type="typeN" route="N2S" depart="851" />
    <vehicle id="W_212" type="typeW" route="W2E" depart="853" />
    <vehicle id="W_213" type="typeW" route="W2E" depart="857" />
    <vehicle id="E_214" type="typeE" route="W2E" depart="865" />
    <vehicle id="E_215" type="typeE" route="W2E" depart="867" />
    <vehicle id="E_216" type="typeE" route="W2E" depart="874" />
    <vehicle id="E_217" type="typeE" route="W2E" depart="875" />
    <vehicle id="E_218" type="typeE" route="W2E" depart="879" />
    <vehicle id="W_219" type="typeW" route="W2E" depart="886" />
    <vehicle id="E_220" type="typeE" route="W2E" depart="892" />
    <vehicle id="W_221" type="typeW" route="W2E" depart="906" />
    <vehicle id="W_222" type="typeW" route="W2E" depart="909" />
    <vehicle id="S_223" type="typeS" route="N2S" depart="913" />
    <vehicle id="E_224" type="typeE" route="W2E" depart="924" />
    <vehicle id="W_225" type="typeW" route="W2E" depart="928" />
    <vehicle id="S_226" type="typeS" route="N2S" depart="934" />
    <vehicle id="W_227" type="typeW" route="W2E" depart="935" />
    <vehicle id="W_228" type="typeW" route="W2E" depart="939" />
    <vehicle id="E_229" type="typeE" route="W2E" depart="939" />
    <vehicle id="N_230" type="typeN" route="N2S" depart="941" />
    <vehicle id="E_231" type="typeE" route="W2E" depart="950" />
    <vehicle id="E_232" type="typeE" route="W2E" depart="956" />
    <vehicle id="W_233" type="typeW" route="W2E" depart="961" />
    <vehicle id="E_234" type="typeE" route="W2E" depart="966" />
    <vehicle id="S_235" type="typeS" route="N2S" depart="966" />
    <vehicle id="E_236" type="typeE" route="W2E" depart="967" />
    <vehicle id="W_237" type="typeW" route="W2E" depart="976" />
    <vehicle id="W_238" type="typeW" route="W2E" depart="978" />
    <vehicle id="E_239" type="typeE" route="W2E" depart="988" />
    <vehicle id="W_240" type="typeW" route="W2E" depart="990" />
    <vehicle id="N_241" type="typeN" route="N2S" depart="991" />
    <vehicle id="E_242" type="typeE" route="W2E" depart="999" />
    <vehicle id="W_243" type="typeW" route="W2E" depart="1005" />
    <vehicle id="E_244" type="typeE" route="W2E" depart="1008" />
    <vehicle id="S_245" type="typeS" route="N2S" depart="1017" />
    <vehicle id="W_246" type="typeW" route="W2E" depart="1018" />
    <vehicle id="W_247" type="typeW" route="W2E" depart="1019" />
    <vehicle id="E_248" type="typeE" route="W2E" depart="1025" />
    <vehicle id="E_249" type="typeE" route="W2E" depart="1031" />
    <vehicle id="N_250" type="typeN" route="N2S" depart="1035" />
    <vehicle id="W_251" type="typeW" route="W2E" depart="1036" />
    <vehicle id="W_252" type="typeW" route="W2E" depart="1038" />
    <vehicle id="W_253" type="typeW" route="W2E" depart="1049" />
    <vehicle id="W_254" type="typeW" route="W2E" depart="1052" />
    <vehicle id="W_255" type="typeW" route="W2E" depart="1065" />
    <vehicle id="W_256" type="typeW" route="W2E" depart="1071" />
    <vehicle id="S_257" type="typeS" route="N2S" depart="1074" />
    <vehicle id="W_258" type="typeW" route="W2E" depart="1076" />
    <vehicle id="N_259" type="typeN" route="N2S" depart="1077" />
    <vehicle id="E_260" type="typeE" route="W2E" depart="1078" />
    <vehicle id="W_261" type="typeW" route="W2E" depart="1081" />
    <vehicle id="N_262" type="typeN" route="N2S" depart="1087" />
    <vehicle id="S_263" type="typeS" route="N2S" depart="1088" />
    <vehicle id="S_264" type="typeS" route="N2S" depart="1089" />
    <vehicle id="S_265" type="typeS" route="N2S" depart="1090" />
    <vehicle id="S_266" type="typeS" route="N2S" depart="1097" />
    <vehicle id="W_267" type="typeW" route="W2E" depart="1098" />
    <vehicle id="E_268" type="typeE" route="W2E" depart="1103" />
    <vehicle id="E_269" type="typeE" route="W2E" depart="1106" />
    <vehicle id="S_270" type="typeS" route="N2S" depart="1112" />
    <vehicle id="W_271" type="typeW" route="W2E" depart="1113" />
    <vehicle id="E_272" type="typeE" route="W2E" depart="1114" />
    <vehicle id="W_273" type="typeW" route="W2E" depart="1116" />
    <vehicle id="W_274" type="typeW" route="W2E" depart="1123" />
    <vehicle id="E_275" type="typeE" route="W2E" depart="1124" />
    <vehicle id="E_276" type="typeE" route="W2E" depart="1125" />
    <vehicle id="E_277" type="typeE" route="W2E" depart="1129" />
    <vehicle id="W_278" type="typeW" route="W2E" depart="1133" />
    <vehicle id="E_279" type="typeE" route="W2E" depart="1134" />
    <vehicle id="W_280" type="typeW" route="W2E" depart="1137" />
    <vehicle id="W_281" type="typeW" route="W2E" depart="1138" />
    <vehicle id="E_282" type="typeE" route="W2E" depart="1150" />
    <vehicle id="E_283" type="typeE" route="W2E" depart="1152" />
    <vehicle id="W_284" type="typeW" route="W2E" depart="1154" />
    <vehicle id="W_285" type="typeW" route="W2E" depart="1158" />
    <vehicle id="N_286" type="typeN" route="N2S" depart="1160" />
    <vehicle id="E_287" type="typeE" route="W2E" depart="1165" />
    <vehicle id="E_288" type="typeE" route="W2E" depart="1166" />
    <vehicle id="E_289" type="typeE" route="W2E" depart="1169" />
    <vehicle id="E_290" type="typeE" route="W2E" depart="1170" />
    <vehicle id="S_291" type="typeS" route="N2S" depart="1171" />
    <vehicle id="E_292" type="typeE" route="W2E" depart="1175" />
    <vehicle id="N_293" type="typeN" route="N2S" depart="1176" />
    <vehicle id="N_294" type="typeN" route="N2S" depart="1177" />
    <vehicle id="W_295" type="typeW" route="W2E" depart="1180" />
    <vehicle id="W_296" type="typeW" route="W2E" depart="1182" />
    <vehicle id="N_297" type="typeN" route="N2S" depart="1182" />
    <vehicle id="W_298" type="typeW" route="W2E" depart="1184" />
    <vehicle id="N_299" type="typeN" route="N2S" depart="1187" />
    <vehicle id="E_300" type="typeE" route="W2E" depart="1193" />
    <vehicle id="W_301" type="typeW" route="W2E" depart="1209" />
    <vehicle id="N_302" type="typeN" route="N2S" depart="1209" />
    <vehicle id="W_303" type="typeW" route="W2E" depart="1211" />
    <vehicle id="E_304" type="typeE" route="W2E" depart="1213" />
    <vehicle id="E_305" type="typeE" route="W2E" depart="1234" />
    <vehicle id="E_306" type="typeE" route="W2E" depart="1238" />
    <vehicle id="E_307" type="typeE" route="W2E" depart="1252" />
    <vehicle id="N_308" type="typeN" route="N2S" depart="1252" />
    <vehicle id="W_309" type="typeW" route="W2E" depart="1255" />
    <vehicle id="S_310" type="typeS" route="N2S" depart="1256" />
    <vehicle id="W_311" type="typeW" route="W2E" depart="1258" />
    <vehicle id="W_312" type="typeW" route="W2E" depart="1265" />
    <vehicle id="W_313" type="typeW" route="W2E" depart="1271" />
    <vehicle id="N_314" type="typeN" route="N2S" depart="1275" />
    <vehicle id="W_315" type="typeW" route="W2E" depart="1277" />
    <vehicle id="S_316" type="typeS" route="N2S" depart="1280" />
    <vehicle id="E_317" type="typeE" route="W2E" depart="1283" />
    <vehicle id="E_318" type="typeE" route="W2E" depart="1285" />
    <vehicle id="W_319" type="typeW" route="W2E" depart="1294" />
    <vehicle id="W_320" type="typeW" route="W2E" depart="1304" />
    <vehicle id="W_321" type="typeW" route="W2E" depart="1307" />
    <vehicle id="W_322" type="typeW" route="W2E" depart="1311" />
    <vehicle id="E_323" type="typeE" route="W2E" depart="1311" />
    <vehicle id="W_324" type="typeW" route="W2E" depart="1313" />
    <vehicle id="W_325" type="typeW" route="W2E" depart="1319" />
    <vehicle id="E_326" type="typeE" route="W2E" depart="1320" />
    <vehicle id="W_327" type="typeW" route="W2E" depart="1329" />
    <vehicle id="W_328" type="typeW" route="W2E" depart="1330" />
    <vehicle id="W_329" type="typeW" route="W2E" depart="1331" />
    <vehicle id="W_330" type="typeW" route="W2E" depart="1335" />
    <vehicle id="W_331" type="typeW" route="W2E" depart="1337" />
    <vehicle id="S_332" type="typeS" route="N2S" depart="1338" />
    <vehicle id="W_333" type="typeW" route="W2E" depart="1342" />
    <vehicle id="S_334" type="typeS" route="N2S" depart="1348" />
    <vehicle id="E_335" type="typeE" route="W2E" depart="1350" />
    <vehicle id="W_336" type="typeW" route="W2E" depart="1356" />
    <vehicle id="S_337" type="typeS" route="N2S" depart="1357" />
    <vehicle id="W_338" type="typeW" route="W2E" depart="1358" />
    <vehicle id="W_339" type="typeW" route="W2E" depart="1375" />
    <vehicle id="E_340" type="typeE" route="W2E" depart="1385" />
    <vehicle id="W_341" type="typeW" route="W2E" depart="1386" />
    <vehicle id="W_342" type="typeW" route="W2E" depart="1399" />
    <vehicle id="W_343" type="typeW" route="W2E" depart="1400" />
    <vehicle id="N_344" type="typeN" route="N2S" depart="1400" />
    <vehicle id="W_345" type="typeW" route="W2E" depart="1401" />
    <vehicle id="E_346" type="typeE" route="W2E" depart="1404" />
    <vehicle id="W_347" type="typeW" route="W2E" depart="1406" />
    <vehicle id="W_348" type="typeW" route="W2E" depart="1407" />
    <vehicle id="E_349" type="typeE" route="W2E" depart="1421" />
    <vehicle id="S_350" type="typeS" route="N2S" depart="1428" />
    <vehicle id="E_351" type="typeE" route="W2E" depart="1429" />
    <vehicle id="W_352" type="typeW" route="W2E" depart="1430" />
    <vehicle id="W_353" type="typeW" route="W2E" depart="1432" />
    <vehicle id="W_354" type="typeW" route="W2E" depart="1435" />
    <vehicle id="E_355" type="typeE" route="W2E" depart="1438" />
    <vehicle id="W_356" type="typeW" route="W2E" depart="1440" />
    <vehicle id="E_357" type="typeE" route="W2E" depart="1443" />
    <vehicle id="W_358" type="typeW" route="W2E" depart="1451" />
    <vehicle id="W_359" type="typeW" route="W2E" depart="1465" />
    <vehicle id="S_360" type="typeS" route="N2S" depart="1469" />
    <vehicle id="E_361" type="typeE" route="W2E" depart="1477" />
    <vehicle id="E_362" type="typeE" route="W2E" depart="1478" />
    <vehicle id="E_363" type="typeE" route="W2E" depart="1482" />
    <vehicle id="E_364" type="typeE" route="W2E" depart="1485" />
    <vehicle id="E_365" type="typeE" route="W2E" depart="1487" />
    <vehicle id="W_366" type="typeW" route="W2E" depart="1490" />
    <vehicle id="N_367" type="typeN" route="N2S" depart="1491" />
    <vehicle id="S_368" type="typeS" route="N2S" depart="1491" />
    <vehicle id="E_369" type="typeE" route="W2E" depart="1495" />
    <vehicle id="E_370" type="typeE" route="W2E" depart="1505" />
    <vehicle id="W_371" type="typeW" route="W2E" depart="1510" />
    <vehicle id="W_372" type="typeW" route="W2E" depart="1513" />
    <vehicle id="W_373" type="typeW" route="W2E" depart="1515" />
    <vehicle id="E_374" type="typeE" route="W2E" depart="1518" />
    <vehicle id="W_375" type="typeW" route="W2E" depart="1523" />
    <vehicle id="N_376" type="typeN" route="N2S" depart="1523" />
    <vehicle id="W_377" type="typeW" route="W2E" depart="1536" />
    <vehicle id="N_378" type="typeN" route="N2S" depart="1551" />
    <vehicle id="N_379" type="typeN" route="N2S" depart="1557" />
    <vehicle id="S_380" type="typeS" route="N2S" depart="1558" />
    <vehicle id="N_381" type="typeN" route="N2S" depart="1562" />
    <vehicle id="W_382" type="typeW" route="W2E" depart="1571" />
    <vehicle id="W_383" type="typeW" route="W2E" depart="1572" />
    <vehicle id="W_384" type="typeW" route="W2E" depart="1576" />
    <vehicle id="W_385" type="typeW" route="W2E" depart="1582" />
    <vehicle id="W_386" type="typeW" route="W2E" depart="1586" />
    <vehicle id="N_387" type="typeN" route="N2S" depart="1588" />
    <vehicle id="W_388" type="typeW" route="W2E" depart="1589" />
    <vehicle id="S_389" type="typeS" route="N2S" depart="1600" />
    <vehicle id="E_390" type="typeE" route="W2E" depart="1606" />
    <vehicle id="E_391" type="typeE" route="W2E" depart="1613" />
    <vehicle id="E_392" type="typeE" route="W2E" depart="1624" />
    <vehicle id="E_393" type="typeE" route="W2E" depart="1632" />
    <vehicle id="W_394" type="typeW" route="W2E" depart="1637" />
    <vehicle id="E_395" type="typeE" route="W2E" depart="1647" />
    <vehicle id="W_396" type="typeW" route="W2E" depart="1654" />
    <vehicle id="W_397" type="typeW" route="W2E" depart="1655" />
    <vehicle id="W_398" type="typeW" route="W2E" depart="1657" />
    <vehicle id="N_399" type="typeN" route="N2S" depart="1658" />
    <vehicle id="W_400" type="typeW" route="W2E" depart="1661" />
    <vehicle id="W_401" type="typeW" route="W2E" depart="1662" />
    <vehicle id="E_402" type="typeE" route="W2E" depart="1675" />
    <vehicle id="S_403" type="typeS" route="N2S" depart="1683" />
    <vehicle id="W_404" type="typeW" route="W2E" depart="1688" />
    <vehicle id="N_405" type="typeN" route="N2S" depart="1688" />
    <vehicle id="S_406" type="typeS" route="N2S" depart="1691" />
    <vehicle id="S_407" type="typeS" route="N2S" depart="1694" />
    <vehicle id="S_408" type="typeS" route="N2S" depart="1701" />
    <vehicle id="W_409" type="typeW" route="W2E" depart="1710" />
    <vehicle id="E_410" type="typeE" route="W2E" depart="1710" />
    <vehicle id="W_411" type="typeW" route="W2E" depart="1712" />
    <vehicle id="W_412" type="typeW" route="W2E" depart="1714" />
    <vehicle id="W_413" type="typeW" route="W2E" depart="1721" />
    <vehicle id="W_414" type="typeW" route="W2E" depart="1724" />
    <vehicle id="W_415" type="typeW" route="W2E" depart="1728" />
    <vehicle id="N_416" type="typeN" route="N2S" depart="1728" />
    <vehicle id="E_417" type="typeE" route="W2E" depart="1729" />
    <vehicle id="E_418" type="typeE" route="W2E" depart="1730" />
    <vehicle id="N_419" type="typeN" route="N2S" depart="1734" />
    <vehicle id="N_420" type="typeN" route="N2S" depart="1741" />
    <vehicle id="W_421" type="typeW" route="W2E" depart="1751" />
    <vehicle id="W_422" type="typeW" route="W2E" depart="1752" />
    <vehicle id="W_423" type="typeW" route="W2E" depart="1774" />
    <vehicle id="W_424" type="typeW" route="W2E" depart="1776" />
    <vehicle id="E_425" type="typeE" route="W2E" depart="1778" />
    <vehicle id="S_426" type="typeS" route="N2S" depart="1778" />
    <vehicle id="W_427" type="typeW" route="W2E" depart="1783" />
    <vehicle id="E_428" type="typeE" route="W2E" depart="1783" />
    <vehicle id="W_429" type="typeW" route="W2E" depart="1787" />
    <vehicle id="N_430" type="typeN" route="N2S" depart="1793" />
    <vehicle id="S_431" type="typeS" route="N2S" depart="1794" />
    <vehicle id="E_432" type="typeE" route="W2E" depart="1797" />
    <vehicle id="W_433" type="typeW" route="W2E" depart="1803" />
    <vehicle id="S_434" type="typeS" route="N2S" depart="1803" />
    <vehicle id="N_435" type="typeN" route="N2S" depart="1809" />
    <vehicle id="S_436" type="typeS" route="N2S" depart="1810" />
    <vehicle id="E_437" type="typeE" route="W2E" depart="1817" />
    <vehicle id="W_438" type="typeW" route="W2E" depart="1822" />
    <vehicle id="N_439" type="typeN" route="N2S" depart="1825" />
    <vehicle id="W_440" type="typeW" route="W2E" depart="1826" />
    <vehicle id="N_441" type="typeN" route="N2S" depart="1826" />
    <vehicle id="E_442" type="typeE" route="W2E" depart="1831" />
    <vehicle id="W_443" type="typeW" route="W2E" depart="1834" />
    <vehicle id="E_444" type="typeE" route="W2E" depart="1836" />
    <vehicle id="S_445" type="typeS" route="N2S" depart="1838" />
    <vehicle id="W_446" type="typeW" route="W2E" depart="1842" />
    <vehicle id="S_447" type="typeS" route="N2S" depart="1847" />
    <vehicle id="W_448" type="typeW" route="W2E" depart="1854" />
    <vehicle id="N_449" type="typeN" route="N2S" depart="1854" />
    <vehicle id="W_450" type="typeW" route="W2E" depart="1858" />